Version 4
SHEET 1 1444 680
WIRE -416 48 -416 -16
WIRE 48 80 -16 80
WIRE 176 96 112 96
WIRE 208 96 176 96
WIRE 48 112 -288 112
WIRE 464 144 400 144
WIRE 640 144 544 144
WIRE -416 208 -416 128
WIRE -416 208 -560 208
WIRE -16 208 -16 80
WIRE -16 208 -128 208
WIRE 64 208 -16 208
WIRE 176 208 176 96
WIRE 176 208 144 208
WIRE -288 224 -288 112
WIRE -560 240 -560 208
WIRE -128 240 -128 208
WIRE 288 240 288 96
WIRE 400 240 400 144
WIRE 400 240 288 240
WIRE 480 240 400 240
WIRE -416 256 -416 208
WIRE 640 256 640 144
WIRE 640 256 544 256
WIRE 400 272 288 272
WIRE 480 272 400 272
WIRE 48 320 -32 320
WIRE 176 320 128 320
WIRE 400 336 400 272
WIRE -128 368 -128 320
WIRE -32 368 -32 320
WIRE -32 368 -128 368
WIRE -32 416 -32 368
WIRE 32 416 -32 416
WIRE -416 432 -416 336
WIRE 176 432 176 320
WIRE 176 432 96 432
WIRE 192 432 176 432
WIRE 288 432 288 272
WIRE 288 432 272 432
WIRE -288 448 -288 304
WIRE 32 448 -288 448
WIRE -288 496 -288 448
FLAG 400 416 0
FLAG -560 240 0
FLAG -416 -16 +Vcc
FLAG 96 64 +Vcc
FLAG 80 400 +Vcc
FLAG 528 224 +Vcc
FLAG -416 432 -Vcc
FLAG 80 128 -Vcc
FLAG 64 464 -Vcc
FLAG 512 288 -Vcc
FLAG -288 496 0
SYMBOL OpAmps\\LM108A 80 32 R0
SYMATTR InstName U1
SYMBOL OpAmps\\LM108A 64 368 R0
SYMATTR InstName U2
SYMBOL OpAmps\\LM108A 512 192 R0
SYMATTR InstName U3
SYMBOL res 304 80 R90
WINDOW 0 0 56 VBottom 2
WINDOW 3 32 56 VTop 2
SYMATTR InstName R1
SYMATTR Value 10k
SYMBOL res 288 416 R90
WINDOW 0 0 56 VBottom 2
WINDOW 3 32 56 VTop 2
SYMATTR InstName R2
SYMATTR Value 10k
SYMBOL res 160 192 R90
WINDOW 0 0 56 VBottom 2
WINDOW 3 32 56 VTop 2
SYMATTR InstName R3
SYMATTR Value 50k
SYMBOL res 144 304 R90
WINDOW 0 0 56 VBottom 2
WINDOW 3 32 56 VTop 2
SYMATTR InstName R4
SYMATTR Value 50k
SYMBOL res 416 432 R180
WINDOW 0 36 76 Left 2
WINDOW 3 36 40 Left 2
SYMATTR InstName R5
SYMATTR Value 10k
SYMBOL res 448 160 R270
WINDOW 0 32 56 VTop 2
WINDOW 3 0 56 VBottom 2
SYMATTR InstName R6
SYMATTR Value 10k
SYMBOL res -144 224 R0
SYMATTR InstName R7-10k-var
SYMATTR Value 10k
SYMBOL voltage -416 32 R0
WINDOW 123 0 0 Left 0
WINDOW 39 0 0 Left 0
SYMATTR InstName V1
SYMATTR Value 15
SYMBOL voltage -416 240 R0
WINDOW 123 0 0 Left 0
WINDOW 39 0 0 Left 0
SYMATTR InstName V2
SYMATTR Value 15
SYMBOL voltage -288 208 R0
WINDOW 123 0 0 Left 0
WINDOW 39 0 0 Left 0
SYMATTR InstName V3
SYMATTR Value SINE(0 0.001 20)
TEXT -584 560 Left 2 !.tran .1
