Version 4
SHEET 1 1780 680
WIRE 736 0 704 0
WIRE 1024 0 816 0
WIRE -16 112 -80 112
WIRE 112 112 48 112
WIRE 256 112 176 112
WIRE 400 112 320 112
WIRE 496 112 464 112
WIRE 624 112 496 112
WIRE 704 112 704 0
WIRE 704 112 688 112
WIRE 752 112 704 112
WIRE 864 112 816 112
WIRE 496 128 496 112
WIRE 896 128 848 128
WIRE 1520 128 1488 128
WIRE 1024 144 1024 0
WIRE 1024 144 960 144
WIRE 1072 144 1024 144
WIRE 1152 144 1072 144
WIRE 1264 144 1216 144
WIRE 1440 144 1264 144
WIRE 1712 144 1584 144
WIRE 1776 144 1712 144
WIRE -80 160 -80 112
WIRE 48 160 48 112
WIRE 176 160 176 112
WIRE 320 160 320 112
WIRE 864 160 864 112
WIRE 896 160 864 160
WIRE 1440 160 1440 144
WIRE 1520 160 1440 160
WIRE 816 176 816 112
WIRE 816 176 736 176
WIRE 1264 176 1264 144
WIRE -688 208 -688 112
WIRE -640 208 -688 208
WIRE -640 224 -640 208
WIRE 48 240 -80 240
WIRE 176 240 48 240
WIRE 320 240 176 240
WIRE 496 240 496 208
WIRE 496 240 320 240
WIRE 848 240 848 128
WIRE 944 240 848 240
WIRE 1072 240 1072 144
WIRE 1072 240 1024 240
WIRE 736 256 736 176
WIRE 848 256 848 240
WIRE 1344 256 1264 256
WIRE 1488 256 1488 128
WIRE 1488 256 1424 256
WIRE 1584 256 1488 256
WIRE 1712 256 1712 144
WIRE 1712 256 1664 256
WIRE -688 272 -688 208
WIRE -688 272 -720 272
WIRE -720 288 -720 272
WIRE -704 288 -720 288
WIRE 176 288 176 240
WIRE 736 384 736 336
WIRE 784 384 736 384
WIRE 848 384 848 336
WIRE 848 384 784 384
WIRE 1264 384 1264 256
WIRE 1264 384 848 384
WIRE -704 416 -704 288
WIRE 784 432 784 384
FLAG 176 288 0
FLAG 784 432 0
FLAG -640 224 0
FLAG -688 32 +Vcc
FLAG 944 112 +Vcc
FLAG 1568 112 +Vcc
FLAG -704 496 -Vcc
FLAG 928 176 -Vcc
FLAG 1552 176 -Vcc
SYMBOL cap 48 96 R90
WINDOW 0 0 32 VBottom 2
WINDOW 3 32 32 VTop 2
SYMATTR InstName C1
SYMATTR Value 100µ
SYMBOL cap 176 96 R90
WINDOW 0 0 32 VBottom 2
WINDOW 3 32 32 VTop 2
SYMATTR InstName C2
SYMATTR Value 100µ
SYMBOL cap 320 96 R90
WINDOW 0 0 32 VBottom 2
WINDOW 3 32 32 VTop 2
SYMATTR InstName C3
SYMATTR Value 100µ
SYMBOL res 32 144 R0
SYMATTR InstName R1
SYMATTR Value 30k
SYMBOL res 160 144 R0
SYMATTR InstName R2
SYMATTR Value 30k
SYMBOL res 304 144 R0
SYMATTR InstName R3
SYMATTR Value 30k
SYMBOL voltage -80 144 R0
WINDOW 123 0 0 Left 0
WINDOW 39 0 0 Left 0
SYMATTR InstName V1
SYMATTR Value SINE(0 2 0.025)
SYMBOL cap 464 96 R90
WINDOW 0 0 32 VBottom 2
WINDOW 3 32 32 VTop 2
SYMATTR InstName C4
SYMATTR Value 100µ
SYMBOL res 480 112 R0
SYMATTR InstName R4
SYMATTR Value 30k
SYMBOL OpAmps\\LM108A 928 80 R0
SYMATTR InstName U1
SYMBOL res 720 240 R0
SYMATTR InstName R5
SYMATTR Value 30k
SYMBOL res 832 240 R0
SYMATTR InstName R6
SYMATTR Value 10k
SYMBOL res 1040 224 R90
WINDOW 0 0 56 VBottom 2
WINDOW 3 32 56 VTop 2
SYMATTR InstName R7
SYMATTR Value 10k
SYMBOL res 832 -16 R90
WINDOW 0 0 56 VBottom 2
WINDOW 3 32 56 VTop 2
SYMATTR InstName R8
SYMATTR Value 30k
SYMBOL cap 688 96 R90
WINDOW 0 0 32 VBottom 2
WINDOW 3 32 32 VTop 2
SYMATTR InstName C5
SYMATTR Value 100µ
SYMBOL cap 816 96 R90
WINDOW 0 0 32 VBottom 2
WINDOW 3 32 32 VTop 2
SYMATTR InstName C6
SYMATTR Value 100µ
SYMBOL res 1248 160 R0
SYMATTR InstName R9
SYMATTR Value 30k
SYMBOL res 1440 240 R90
WINDOW 0 0 56 VBottom 2
WINDOW 3 32 56 VTop 2
SYMATTR InstName R10
SYMATTR Value 1k
SYMBOL res 1680 240 R90
WINDOW 0 0 56 VBottom 2
WINDOW 3 32 56 VTop 2
SYMATTR InstName R11
SYMATTR Value 20k
SYMBOL OpAmps\\LM108A 1552 80 R0
SYMATTR InstName U2
SYMBOL voltage -688 16 R0
WINDOW 123 0 0 Left 0
WINDOW 39 0 0 Left 0
SYMATTR InstName V2
SYMATTR Value 15
SYMBOL voltage -704 400 R0
WINDOW 123 0 0 Left 0
WINDOW 39 0 0 Left 0
SYMATTR InstName V3
SYMATTR Value 15
SYMBOL cap 1216 128 R90
WINDOW 0 0 32 VBottom 2
WINDOW 3 32 32 VTop 2
SYMATTR InstName C7
SYMATTR Value 100µ
TEXT -114 312 Left 2 !.tran 200
