Version 4
SHEET 1 880 680
WIRE -208 0 -416 0
WIRE -64 0 -96 0
WIRE -96 32 -96 0
WIRE 0 32 -96 32
WIRE 128 32 80 32
WIRE 192 32 128 32
WIRE 368 32 272 32
WIRE -672 80 -672 48
WIRE -672 80 -752 80
WIRE -416 96 -416 0
WIRE -64 112 -64 0
WIRE 32 112 -64 112
WIRE -752 128 -752 80
WIRE -96 128 -96 32
WIRE 128 144 128 32
WIRE 176 144 128 144
WIRE 368 160 368 32
WIRE 368 160 240 160
WIRE 176 176 128 176
WIRE -672 192 -672 80
WIRE -416 240 -416 176
WIRE -208 256 -208 0
WIRE -192 256 -208 256
WIRE -96 256 -96 208
WIRE -96 256 -128 256
WIRE 128 256 128 176
WIRE 128 256 -96 256
WIRE 32 352 32 112
WIRE 32 352 -16 352
WIRE 80 352 32 352
FLAG 224 128 +Vcc
FLAG 208 192 -Vcc
FLAG -96 352 +Vcc
FLAG 160 352 -Vcc
FLAG -752 128 0
FLAG -672 -32 +Vcc
FLAG -672 272 -Vcc
FLAG -416 240 0
SYMBOL OpAmps\\LM108A 208 96 R0
SYMATTR InstName U1
SYMBOL res 96 16 R90
WINDOW 0 0 56 VBottom 2
WINDOW 3 32 56 VTop 2
SYMATTR InstName R1
SYMATTR Value 806
SYMBOL res 288 16 R90
WINDOW 0 0 56 VBottom 2
WINDOW 3 32 56 VTop 2
SYMATTR InstName R2
SYMATTR Value 13k
SYMBOL res -80 224 R180
WINDOW 0 36 76 Left 2
WINDOW 3 36 40 Left 2
SYMATTR InstName R3
SYMATTR Value 23.4k
SYMBOL res -112 368 R270
WINDOW 0 32 56 VTop 2
WINDOW 3 0 56 VBottom 2
SYMATTR InstName R4
SYMATTR Value 10k
SYMBOL res 64 368 R270
WINDOW 0 32 56 VTop 2
WINDOW 3 0 56 VBottom 2
SYMATTR InstName R5
SYMATTR Value 10k
SYMBOL voltage -672 -48 R0
WINDOW 123 0 0 Left 0
WINDOW 39 0 0 Left 0
SYMATTR InstName V1
SYMATTR Value 15
SYMBOL voltage -672 176 R0
WINDOW 123 0 0 Left 0
WINDOW 39 0 0 Left 0
SYMATTR InstName V2
SYMATTR Value 15
SYMBOL voltage -416 80 R0
WINDOW 123 0 0 Left 0
WINDOW 39 0 0 Left 0
SYMATTR InstName V3
SYMATTR Value SINE(2 1 0.025)
SYMBOL cap -128 240 R90
WINDOW 0 0 32 VBottom 2
WINDOW 3 32 32 VTop 2
SYMATTR InstName C1
SYMATTR Value 6.8µ
TEXT -170 414 Left 2 !.tran 500
