Version 4
SHEET 1 1428 680
WIRE -864 -112 -864 -176
WIRE 1088 -16 912 -16
WIRE 1424 -16 1088 -16
WIRE 176 48 -16 48
WIRE 576 48 368 48
WIRE 736 48 576 48
WIRE 912 48 912 -16
WIRE 368 80 368 48
WIRE -864 112 -864 -32
WIRE -864 112 -1024 112
WIRE 576 144 576 48
WIRE 608 144 576 144
WIRE 1088 144 1088 -16
WIRE 1152 144 1088 144
WIRE -1024 160 -1024 112
WIRE -16 160 -16 48
WIRE 48 160 -16 160
WIRE 736 160 736 48
WIRE 736 160 672 160
WIRE 784 160 736 160
WIRE 912 160 912 112
WIRE 912 160 864 160
WIRE 960 160 912 160
WIRE 1104 160 1040 160
WIRE 1120 160 1104 160
WIRE 1424 160 1424 -16
WIRE 1424 160 1216 160
WIRE -864 176 -864 112
WIRE -240 176 -480 176
WIRE -80 176 -160 176
WIRE -48 176 -80 176
WIRE 176 176 176 48
WIRE 176 176 112 176
WIRE 224 176 176 176
WIRE 368 176 368 144
WIRE 368 176 304 176
WIRE 416 176 368 176
WIRE 560 176 496 176
WIRE 608 176 560 176
WIRE 1120 176 1120 160
WIRE 1152 176 1120 176
WIRE -48 192 -48 176
WIRE 48 192 -48 192
WIRE 560 256 560 176
WIRE 1104 256 1104 160
WIRE -80 272 -80 176
WIRE -480 288 -480 176
WIRE -864 336 -864 256
FLAG -80 336 0
FLAG 560 320 0
FLAG 1104 320 0
FLAG -1024 160 0
FLAG -864 -176 +Vcc
FLAG 96 144 +Vcc
FLAG 656 128 +Vcc
FLAG 1200 128 +Vcc
FLAG -864 336 -Vcc
FLAG 80 208 -Vcc
FLAG 640 192 -Vcc
FLAG 1184 192 -Vcc
FLAG -480 368 0
SYMBOL OpAmps\\LM108A 80 112 R0
SYMATTR InstName U1
SYMBOL OpAmps\\LM108A 640 96 R0
SYMATTR InstName U2
SYMBOL OpAmps\\LM108A 1184 96 R0
SYMATTR InstName U3
SYMBOL res 320 160 R90
WINDOW 0 0 56 VBottom 2
WINDOW 3 32 56 VTop 2
SYMATTR InstName R1
SYMATTR Value 7.381k
SYMBOL res 512 160 R90
WINDOW 0 0 56 VBottom 2
WINDOW 3 32 56 VTop 2
SYMATTR InstName R2
SYMATTR Value 7.381k
SYMBOL res 880 144 R90
WINDOW 0 0 56 VBottom 2
WINDOW 3 32 56 VTop 2
SYMATTR InstName R3
SYMATTR Value 9.752k
SYMBOL res 1056 144 R90
WINDOW 0 0 56 VBottom 2
WINDOW 3 32 56 VTop 2
SYMATTR InstName R4
SYMATTR Value 4.876k
SYMBOL res -144 160 R90
WINDOW 0 0 56 VBottom 2
WINDOW 3 32 56 VTop 2
SYMATTR InstName R5
SYMATTR Value 14.628k
SYMBOL cap -96 272 R0
SYMATTR InstName C1
SYMATTR Value 0.068µ
SYMBOL cap 544 256 R0
SYMATTR InstName C2
SYMATTR Value 0.068µ
SYMBOL cap 1088 256 R0
SYMATTR InstName C3
SYMATTR Value 0.068µ
SYMBOL cap 896 48 R0
SYMATTR InstName C4
SYMATTR Value 0.306µ
SYMBOL cap 352 80 R0
SYMATTR InstName C5
SYMATTR Value 0.272µ
SYMBOL voltage -864 -128 R0
WINDOW 123 0 0 Left 0
WINDOW 39 0 0 Left 0
SYMATTR InstName V1
SYMATTR Value 15
SYMBOL voltage -864 160 R0
WINDOW 123 0 0 Left 0
WINDOW 39 0 0 Left 0
SYMATTR InstName V2
SYMATTR Value 15
SYMBOL voltage -480 272 R0
WINDOW 123 0 0 Left 0
WINDOW 39 0 0 Left 0
SYMATTR InstName V3
SYMATTR Value SINE(0 1 170)
TEXT -1044 434 Left 2 !.tran 0.01
