Version 4
SHEET 1 880 680
WIRE -176 32 -240 32
WIRE -32 32 -112 32
WIRE 48 32 -32 32
WIRE -240 48 -240 32
WIRE -240 48 -368 48
WIRE -688 80 -688 48
WIRE -368 80 -368 48
WIRE 320 112 -32 112
WIRE -240 176 -240 48
WIRE -176 176 -240 176
WIRE -32 176 -96 176
WIRE 16 176 -32 176
WIRE 112 176 112 32
WIRE 112 176 96 176
WIRE 160 176 128 176
WIRE 304 192 224 192
WIRE 320 192 320 112
WIRE 320 192 304 192
WIRE -688 208 -688 160
WIRE -688 208 -800 208
WIRE 112 208 112 176
WIRE 160 208 112 208
WIRE -800 240 -800 208
WIRE -368 256 -368 160
WIRE -32 256 -32 176
WIRE -688 320 -688 208
WIRE -32 336 -32 320
WIRE 128 352 128 176
WIRE 192 352 128 352
WIRE 304 352 304 192
WIRE 304 352 272 352
WIRE 128 400 128 352
WIRE -688 448 -688 400
FLAG -32 336 0
FLAG 128 480 0
FLAG -368 256 0
FLAG -800 240 0
FLAG -688 48 +Vcc
FLAG -688 448 -Vcc
FLAG 192 224 -Vcc
FLAG 208 160 +Vcc
SYMBOL OpAmps\\LM108A 192 128 R0
SYMATTR InstName U1
SYMBOL res 112 160 R90
WINDOW 0 0 56 VBottom 2
WINDOW 3 32 56 VTop 2
SYMATTR InstName R1
SYMATTR Value 5.647k
SYMBOL res -80 160 R90
WINDOW 0 0 56 VBottom 2
WINDOW 3 32 56 VTop 2
SYMATTR InstName R2
SYMATTR Value 5.647k
SYMBOL res 288 336 R90
WINDOW 0 0 56 VBottom 2
WINDOW 3 32 56 VTop 2
SYMATTR InstName R3
SYMATTR Value 0.805k
SYMBOL res 144 496 R180
WINDOW 0 36 76 Left 2
WINDOW 3 36 40 Left 2
SYMATTR InstName R4
SYMATTR Value 1k
SYMBOL res -16 128 R180
WINDOW 0 36 76 Left 2
WINDOW 3 36 40 Left 2
SYMATTR InstName R5
SYMATTR Value 2.822k
SYMBOL cap -48 256 R0
SYMATTR InstName C1
SYMATTR Value 0.94µ
SYMBOL cap -112 16 R90
WINDOW 0 0 32 VBottom 2
WINDOW 3 32 32 VTop 2
SYMATTR InstName C2
SYMATTR Value 0.47µ
SYMBOL cap 112 16 R90
WINDOW 0 0 32 VBottom 2
WINDOW 3 32 32 VTop 2
SYMATTR InstName C3
SYMATTR Value 0.47µ
SYMBOL voltage -688 64 R0
WINDOW 123 0 0 Left 0
WINDOW 39 0 0 Left 0
SYMATTR InstName V1
SYMATTR Value 15
SYMBOL voltage -688 304 R0
WINDOW 123 0 0 Left 0
WINDOW 39 0 0 Left 0
SYMATTR InstName V2
SYMATTR Value 15
SYMBOL voltage -368 64 R0
WINDOW 123 0 0 Left 0
WINDOW 39 0 0 Left 0
SYMATTR InstName V3
SYMATTR Value SINE(0 0.02 90)
TEXT -820 546 Left 2 !.tran 0.05
